src/examples/case5/br3/results/res_branch_1.csv
branch,from_bus,to_bus,X,B,G,Bfr,Bto,p_from,p_to,q_from,q_to,p_loss,q_loss,s_from,s_to,rate_a,ang_deg,angmin,angmax
7,4,10,0.0297,-33.33666700003334,3.3336667000033335,0.00337,0.00337,-2.384508998374494,2.398648832742936,0.052771342573484856,0.08052225772883581,0.014139834368442017,0.13329360030232068,2.385092865681741,2.4000000118351665,2.4,-3.3844881783143355,-29.999999999999996,29.999999999999996
4,2,3,0.0108,-91.67583425009167,9.167583425009166,0.00926,0.00926,-0.10370652670434641,0.10426630234528143,-0.7850235302758972,0.7686667426279526,0.0005597756409350257,-0.01635678764794457,0.7918440419475995,0.7757061447655451,4.26,-0.013725596565715288,-29.999999999999996,29.999999999999996
2,1,4,0.0304,-32.56904637832204,3.2569046378322044,0.00329,0.00329,2.7775498489528037,-2.7581558348344317,0.06343555687676158,0.1225922383934639,0.01939401411837194,0.1860277952702255,2.778274146533061,2.760878930004998,4.26,4.016868505977391,-29.999999999999996,29.999999999999996
5,3,4,0.0297,-33.33666700003334,3.3336667000033335,0.00337,0.00337,-0.7464838804816633,0.7565123123716798,-1.7641690862793429,1.8567768165538145,0.010028431890016565,0.09260773027447167,1.9156019285860655,2.004976564766198,4.26,0.1466713402255903,-29.999999999999996,29.999999999999996
6,3,4,0.03274425,-30.23733968256992,3.023733968256992,0.0033860571712018145,0.0033860571712018145,-0.37643857152633114,0.3861525108397359,1.9354763668485189,-1.8468403865768255,0.009713939313404751,0.0886359802716934,1.9717440921077785,1.8867785177701888,4.26,0.1466713402255903,-29.999999999999996,29.999999999999996
1,1,2,0.0281,-35.234840209999646,3.5234840209999647,0.00356,0.00356,2.9164138764116596,-2.896293473295654,0.3937829678409801,-0.20107646972410276,0.020120403116005825,0.19270649811687734,2.94287867984532,2.9032649948173366,4.0,3.883922762317516,-29.999999999999996,29.999999999999996
